<?xml version="1.0" ?>
<configuration xmlns:xsi="http://www.w3.org/2001/XMLSchema-instance" xsi:noNamespaceSchemaLocation="http://sumo.dlr.de/xsd/sumoConfiguration.xsd">
   <input>
      <net-file value="./env/songdo.net.xml"/>
      <route-files value="./env/songdo.rou.xml"/>
      <additional-files value="./add/songdo.poly.xml, ./add/e2.add.xml,  ./add/tls_programs.add.xml"/>
   </input>
</configuration>